(PID.TID 0005.0001) ** Warning ** OBCS_READPARMS: ignores "data.obcs" file since
(PID.TID 0005.0001) ** Warning ** OBCS_READPARMS: useOBCS= F (set from "data.pkg")
